cosimulation_tools/gld-ochre-helics/cosim_using_predownloaded_files/models/powerflow_4node.glm
// Filename: /home/deras/gld-opedss-ochre-helics/cosimulation_tools/gld-ochre-helics/cosim_using_predownloaded_files/models/powerflow_4node.glm
// Path: /home/deras/gld-opedss-ochre-helics/cosimulation_tools/gld-ochre-helics/cosim_using_predownloaded_files/models
// Created Date: Wednesday, March 11th 2026, 3:32:47 pm
// Author: Midrar Adham

// Copyright (c) 2026 Your Company
#set profiler=1

module tape;
module powerflow;
module generators;
module residential;
module connection;
module reliability {
    report_event_log false;
}
module reliability;
object helics_msg {
	name helics;
	// parent ochre_house_load;
	configure ./powerflow_4node_gld_config.json;
}


class player {
    double value;
}


clock {
	timezone US/OR/Portland;
	timestamp '2025-01-01 00:00:00';
    stoptime '2025-01-31 00:00:00';
}

object line_configuration {
	name LC300;
	conductor_A OH100;
	conductor_B OH100;
	conductor_C OH100;
	conductor_N OH101;
	spacing LS200;
}
object line_spacing {
	name LS200;
	distance_AB 2.5;
	distance_BC 4.5;
	distance_AC 7.0;
	distance_AN 5.656854;
	distance_BN 4.272002;
	distance_CN 5.0;
}
object overhead_line_conductor {
	name OH100;
	geometric_mean_radius 0.0244;
	resistance 0.306;
}
object overhead_line_conductor {
	name OH101;
	geometric_mean_radius 0.00814;
	resistance 0.592;
}
object transformer_configuration {
	name XFC400;
	connect_type 2;
	power_rating 6000;
	primary_voltage 12470;
	secondary_voltage 4160;
	resistance 0.01;
	reactance 0.06;
}
object transformer_configuration {
	name PoleTop;
	connect_type SINGLE_PHASE_CENTER_TAPPED;
	power_rating 50;
	powerC_rating 50;
	primary_voltage 2400;
	secondary_voltage 120;
	resistance 0.01;
	reactance 0.06;
}
object triplex_line_configuration {
      name triplex_line_config;
      conductor_1 Name_1_0_AA_triplex;
      conductor_2 Name_1_0_AA_triplex;
      conductor_N Name_1_0_AA_triplex;
      insulation_thickness 0.1;
      diameter 0.4;
}
object triplex_line_conductor {
      name Name_1_0_AA_triplex;
      resistance 0.57;
      geometric_mean_radius 0.0111;
}

object node {
	name Node1;
	bustype SWING;
	phases A|B|C;
	voltage_A +7199.558+0.000j;
	voltage_B -3599.779-6235.000j;
	voltage_C -3599.779+6235.000j;
	nominal_voltage 7199.558;
}

object overhead_line {
	name Link12;
	phases A|B|C;
	from Node1;
	to Node2;
	length 2000;
	configuration LC300;
	nominal_voltage 7199.558;
}

object node {
	name Node2;
	phases A|B|C;
	voltage_A +7199.558+0.000j;
	voltage_B -3599.779-6235.000j;
	voltage_C -3599.779+6235.000j;
	nominal_voltage 7199.558;
}

object transformer {
	name substation_transformer;
	phases A|B|C;
	from Node2;
	to substation_meter;
	configuration XFC400;
}

object meter {
      name substation_meter;
      phases ABCN;
      nominal_voltage 4160;
}

object overhead_line {
	name branch;
	phases A|B|C;
	from substation_meter;
	to Node3;
	length 2000;
	configuration LC300;
	nominal_voltage 2401.777;
}
object node {
	name Node3;
	phases A|B|C;
	voltage_A +2401.777+0.000j;
	voltage_B -1200.889-2080.000j;
	voltage_C -1200.889+2080.000j;
	nominal_voltage 4160;
}

object overhead_line {
	name branch1;
	phases A|B|C;
	from Node3;
	to Node4;
	length 2000;
	configuration LC300;
	nominal_voltage 4160;
}

object node {
	name Node4;
	phases A|B|C;
	voltage_A +2401.777+0.000j;
	voltage_B -1200.889-2080.000j;
	voltage_C -1200.889+2080.000j;
	nominal_voltage 4160;
}


//// here are the stuff I added

object transformer{
	name residential_transformer;
	phases CS;
	from Node4;
	to house_meter;
	configuration PoleTop;
}


object triplex_meter{
	name house_meter;
	phases CS;
	nominal_voltage 120;
}



object triplex_load {
    name ochre_house_load_13370;
    parent house_meter;
    phases CS;
    constant_power_12 0+0j;
    nominal_voltage 120; 
}



object recorder {
    parent ochre_house_load_13370;
    file ../results/ochre_load_13370.csv;
    interval 60;
    property constant_power_12;
}



object triplex_load {
    name ochre_house_load_186734;
    parent house_meter;
    phases CS;
    constant_power_12 0+0j;
    nominal_voltage 120; 
}



object recorder {
    parent ochre_house_load_186734;
    file ../results/ochre_load_186734.csv;
    interval 60;
    property constant_power_12;
}



object triplex_load {
    name ochre_house_load_199434;
    parent house_meter;
    phases CS;
    constant_power_12 0+0j;
    nominal_voltage 120; 
}



object recorder {
    parent ochre_house_load_199434;
    file ../results/ochre_load_199434.csv;
    interval 60;
    property constant_power_12;
}



object triplex_load {
    name ochre_house_load_227486;
    parent house_meter;
    phases CS;
    constant_power_12 0+0j;
    nominal_voltage 120; 
}



object recorder {
    parent ochre_house_load_227486;
    file ../results/ochre_load_227486.csv;
    interval 60;
    property constant_power_12;
}



object triplex_load {
    name ochre_house_load_292272;
    parent house_meter;
    phases CS;
    constant_power_12 0+0j;
    nominal_voltage 120; 
}



object recorder {
    parent ochre_house_load_292272;
    file ../results/ochre_load_292272.csv;
    interval 60;
    property constant_power_12;
}



object triplex_load {
    name ochre_house_load_32387;
    parent house_meter;
    phases CS;
    constant_power_12 0+0j;
    nominal_voltage 120; 
}



object recorder {
    parent ochre_house_load_32387;
    file ../results/ochre_load_32387.csv;
    interval 60;
    property constant_power_12;
}



object triplex_load {
    name ochre_house_load_366404;
    parent house_meter;
    phases CS;
    constant_power_12 0+0j;
    nominal_voltage 120; 
}



object recorder {
    parent ochre_house_load_366404;
    file ../results/ochre_load_366404.csv;
    interval 60;
    property constant_power_12;
}



object triplex_load {
    name ochre_house_load_387321;
    parent house_meter;
    phases CS;
    constant_power_12 0+0j;
    nominal_voltage 120; 
}



object recorder {
    parent ochre_house_load_387321;
    file ../results/ochre_load_387321.csv;
    interval 60;
    property constant_power_12;
}



object triplex_load {
    name ochre_house_load_448411;
    parent house_meter;
    phases CS;
    constant_power_12 0+0j;
    nominal_voltage 120; 
}



object recorder {
    parent ochre_house_load_448411;
    file ../results/ochre_load_448411.csv;
    interval 60;
    property constant_power_12;
}



object triplex_load {
    name ochre_house_load_93923;
    parent house_meter;
    phases CS;
    constant_power_12 0+0j;
    nominal_voltage 120; 
}



object recorder {
    parent ochre_house_load_93923;
    file ../results/ochre_load_93923.csv;
    interval 60;
    property constant_power_12;
}



object triplex_load {
    name ochre_house_load_147689;
    parent house_meter;
    phases CS;
    constant_power_12 0+0j;
    nominal_voltage 120; 
}



object recorder {
    parent ochre_house_load_147689;
    file ../results/ochre_load_147689.csv;
    interval 60;
    property constant_power_12;
}



object triplex_load {
    name ochre_house_load_188195;
    parent house_meter;
    phases CS;
    constant_power_12 0+0j;
    nominal_voltage 120; 
}



object recorder {
    parent ochre_house_load_188195;
    file ../results/ochre_load_188195.csv;
    interval 60;
    property constant_power_12;
}



object triplex_load {
    name ochre_house_load_238583;
    parent house_meter;
    phases CS;
    constant_power_12 0+0j;
    nominal_voltage 120; 
}



object recorder {
    parent ochre_house_load_238583;
    file ../results/ochre_load_238583.csv;
    interval 60;
    property constant_power_12;
}



object triplex_load {
    name ochre_house_load_29683;
    parent house_meter;
    phases CS;
    constant_power_12 0+0j;
    nominal_voltage 120; 
}



object recorder {
    parent ochre_house_load_29683;
    file ../results/ochre_load_29683.csv;
    interval 60;
    property constant_power_12;
}



object triplex_load {
    name ochre_house_load_327816;
    parent house_meter;
    phases CS;
    constant_power_12 0+0j;
    nominal_voltage 120; 
}



object recorder {
    parent ochre_house_load_327816;
    file ../results/ochre_load_327816.csv;
    interval 60;
    property constant_power_12;
}



object triplex_load {
    name ochre_house_load_370750;
    parent house_meter;
    phases CS;
    constant_power_12 0+0j;
    nominal_voltage 120; 
}



object recorder {
    parent ochre_house_load_370750;
    file ../results/ochre_load_370750.csv;
    interval 60;
    property constant_power_12;
}



object triplex_load {
    name ochre_house_load_409590;
    parent house_meter;
    phases CS;
    constant_power_12 0+0j;
    nominal_voltage 120; 
}



object recorder {
    parent ochre_house_load_409590;
    file ../results/ochre_load_409590.csv;
    interval 60;
    property constant_power_12;
}



object triplex_load {
    name ochre_house_load_504038;
    parent house_meter;
    phases CS;
    constant_power_12 0+0j;
    nominal_voltage 120; 
}



object recorder {
    parent ochre_house_load_504038;
    file ../results/ochre_load_504038.csv;
    interval 60;
    property constant_power_12;
}



object triplex_load {
    name ochre_house_load_177213;
    parent house_meter;
    phases CS;
    constant_power_12 0+0j;
    nominal_voltage 120; 
}



object recorder {
    parent ochre_house_load_177213;
    file ../results/ochre_load_177213.csv;
    interval 60;
    property constant_power_12;
}



object triplex_load {
    name ochre_house_load_193969;
    parent house_meter;
    phases CS;
    constant_power_12 0+0j;
    nominal_voltage 120; 
}



object recorder {
    parent ochre_house_load_193969;
    file ../results/ochre_load_193969.csv;
    interval 60;
    property constant_power_12;
}



object triplex_load {
    name ochre_house_load_214735;
    parent house_meter;
    phases CS;
    constant_power_12 0+0j;
    nominal_voltage 120; 
}



object recorder {
    parent ochre_house_load_214735;
    file ../results/ochre_load_214735.csv;
    interval 60;
    property constant_power_12;
}



object triplex_load {
    name ochre_house_load_258272;
    parent house_meter;
    phases CS;
    constant_power_12 0+0j;
    nominal_voltage 120; 
}



object recorder {
    parent ochre_house_load_258272;
    file ../results/ochre_load_258272.csv;
    interval 60;
    property constant_power_12;
}



object triplex_load {
    name ochre_house_load_303992;
    parent house_meter;
    phases CS;
    constant_power_12 0+0j;
    nominal_voltage 120; 
}



object recorder {
    parent ochre_house_load_303992;
    file ../results/ochre_load_303992.csv;
    interval 60;
    property constant_power_12;
}



object triplex_load {
    name ochre_house_load_355669;
    parent house_meter;
    phases CS;
    constant_power_12 0+0j;
    nominal_voltage 120; 
}



object recorder {
    parent ochre_house_load_355669;
    file ../results/ochre_load_355669.csv;
    interval 60;
    property constant_power_12;
}



object triplex_load {
    name ochre_house_load_385977;
    parent house_meter;
    phases CS;
    constant_power_12 0+0j;
    nominal_voltage 120; 
}



object recorder {
    parent ochre_house_load_385977;
    file ../results/ochre_load_385977.csv;
    interval 60;
    property constant_power_12;
}



object triplex_load {
    name ochre_house_load_442093;
    parent house_meter;
    phases CS;
    constant_power_12 0+0j;
    nominal_voltage 120; 
}



object recorder {
    parent ochre_house_load_442093;
    file ../results/ochre_load_442093.csv;
    interval 60;
    property constant_power_12;
}



object triplex_load {
    name ochre_house_load_62;
    parent house_meter;
    phases CS;
    constant_power_12 0+0j;
    nominal_voltage 120; 
}



object recorder {
    parent ochre_house_load_62;
    file ../results/ochre_load_62.csv;
    interval 60;
    property constant_power_12;
}





// Record residential transformer loading
object recorder {
    parent residential_transformer;
    file ../results/residential_transformer.csv;
    interval 60;
    property power_in,power_out;
}
